function mpc = case118_J2
%CASE118_J2

%% MATPOWER Case Format : Version 2
mpc.version = '2';

%%-----  Power Flow Data  -----%%
%% system MVA base
mpc.baseMVA = 100;

%% bus data
%	bus_i	type	Pd	Qd	Gs	Bs	area	Vm	Va	baseKV	zone	Vmax	Vmin
mpc.bus = [
	1	2	51	27	0	0	1	1	7.74479057	138	1	1.06	0.94;
	2	1	20	9	0	0	1	1	8.43130852	138	1	1.06	0.94;
	3	1	39	10	0	0	1	1	8.69237952	138	1	1.06	0.94;
	4	2	39	12	0	0	1	1	12.4644879	138	1	1.06	0.94;
	5	1	0	0	0	-40	1	1	12.933359	138	1	1.06	0.94;
	6	2	52	22	0	0	1	1	10.2652829	138	1	1.06	0.94;
	7	1	19	2	0	0	1	1	9.8572906	138	1	1.06	0.94;
	8	2	28	0	0	0	1	1	17.9575794	345	1	1.06	0.94;
	9	1	0	0	0	0	1	1	25.620805	345	1	1.06	0.94;
	10	2	0	0	0	0	1	1	33.7111611	345	1	1.06	0.94;
	11	1	70	23	0	0	1	1	9.95945043	138	1	1.06	0.94;
	12	2	47	10	0	0	1	1	9.5605109	138	1	1.06	0.94;
	13	1	34	16	0	0	1	1	8.52997827	138	1	1.06	0.94;
	14	1	14	1	0	0	1	1	8.86524415	138	1	1.06	0.94;
	15	2	90	30	0	0	1	1	8.5117808	138	1	1.06	0.94;
	16	1	25	10	0	0	1	1	9.18134919	138	1	1.06	0.94;
	17	1	11	3	0	0	1	1	10.9423024	138	1	1.06	0.94;
	18	2	60	34	0	0	1	1	8.7486265	138	1	1.06	0.94;
	19	2	45	25	0	0	1	1	8.30188672	138	1	1.06	0.94;
	20	1	18	3	0	0	1	1	8.96852938	138	1	1.06	0.94;
	21	1	14	8	0	0	1	1	10.3278668	138	1	1.06	0.94;
	22	1	10	5	0	0	1	1	12.6590144	138	1	1.06	0.94;
	23	1	7	3	0	0	1	1	17.3911768	138	1	1.06	0.94;
	24	2	13	0	0	0	1	1	18.5657329	138	1	1.06	0.94;
	25	2	0	0	0	0	1	1	22.6429436	138	1	1.06	0.94;
	26	2	0	0	0	0	1	1	24.1027862	345	1	1.06	0.94;
	27	2	71	13	0	0	1	1	11.1915575	138	1	1.06	0.94;
	28	1	17	7	0	0	1	1	9.74932392	138	1	1.06	0.94;
	29	1	24	4	0	0	1	1	9.07715854	138	1	1.06	0.94;
	30	1	0	0	0	0	1	1	15.7313181	345	1	1.06	0.94;
	31	2	43	27	0	0	1	1	9.29638118	138	1	1.06	0.94;
	32	2	59	23	0	0	1	1	10.9634967	138	1	1.06	0.94;
	33	1	23	9	0	0	1	1	8.43565162	138	1	1.06	0.94;
	34	2	59	26	0	14	1	1	9.70889262	138	1	1.06	0.94;
	35	1	33	9	0	0	1	1	9.25312667	138	1	1.06	0.94;
	36	2	31	17	0	0	1	1	9.24754496	138	1	1.06	0.94;
	37	1	0	0	0	-25	1	1	10.2200319	138	1	1.06	0.94;
	38	1	0	0	0	0	1	1	15.0323734	345	1	1.06	0.94;
	39	1	27	11	0	0	1	1	7.21615192	138	1	1.06	0.94;
	40	2	66	23	0	0	1	1	6.4375998	138	1	1.06	0.94;
	41	1	37	10	0	0	1	1	6.11662756	138	1	1.06	0.94;
	42	2	96	23	0	0	1	1	8.08879296	138	1	1.06	0.94;
	43	1	18	7	0	0	1	1	10.1020508	138	1	1.06	0.94;
	44	1	16	8	0	10	1	1	13.20687	138	1	1.06	0.94;
	45	1	53	22	0	10	1	1	15.1727979	138	1	1.06	0.94;
	46	2	28	10	0	10	1	1	18.1552681	138	1	1.06	0.94;
	47	1	34	0	0	0	1	1	20.531632	138	1	1.06	0.94;
	48	1	20	11	0	15	1	1	19.7765407	138	1	1.06	0.94;
	49	2	87	30	0	0	1	1	20.7884253	138	1	1.06	0.94;
	50	1	17	4	0	0	1	1	18.5983922	138	1	1.06	0.94;
	51	1	17	8	0	0	1	1	15.854533	138	1	1.06	0.94;
	52	1	18	5	0	0	1	1	14.9118678	138	1	1.06	0.94;
	53	1	23	11	0	0	1	1	13.9768964	138	1	1.06	0.94;
	54	2	113	32	0	0	1	1	14.8869614	138	1	1.06	0.94;
	55	2	63	22	0	0	1	1	14.6130526	138	1	1.06	0.94;
	56	2	84	18	0	0	1	1	14.7929607	138	1	1.06	0.94;
	57	1	12	3	0	0	1	1	16.0011374	138	1	1.06	0.94;
	58	1	12	3	0	0	1	1	15.1181469	138	1	1.06	0.94;
	59	2	277	113	0	0	1	1	18.9954443	138	1	1.06	0.94;
	60	1	78	3	0	0	1	1	22.6416515	138	1	1.06	0.94;
	61	2	0	0	0	0	1	1	23.5140294	138	1	1.06	0.94;
	62	2	77	14	0	0	1	1	22.9342901	138	1	1.06	0.94;
	63	1	0	0	0	0	1	1	22.2661808	345	1	1.06	0.94;
	64	1	0	0	0	0	1	1	24.0314748	345	1	1.06	0.94;
	65	2	0	0	0	0	1	1	27.2890395	345	1	1.06	0.94;
	66	2	39	18	0	0	1	1	27.4485576	138	1	1.06	0.94;
	67	1	28	7	0	0	1	1	24.4796119	138	1	1.06	0.94;
	68	1	0	0	0	0	1	1	27.3886482	345	1	1.06	0.94;
	69	3	0	0	0	0	1	1	30	138	1	1.06	0.94;
	70	2	66	20	0	0	1	1	22.1489939	138	1	1.06	0.94;
	71	1	0	0	0	0	1	1	21.7676382	138	1	1.06	0.94;
	72	2	12	0	0	0	1	1	20.2664196	138	1	1.06	0.94;
	73	2	6	0	0	0	1	1	21.6585731	138	1	1.06	0.94;
	74	2	68	27	0	12	1	1	21.2104654	138	1	1.06	0.94;
	75	1	47	11	0	0	1	1	22.5042733	138	1	1.06	0.94;
	76	2	68	36	0	0	1	1	21.3440197	138	1	1.06	0.94;
	77	2	61	28	0	0	1	1	26.7481396	138	1	1.06	0.94;
	78	1	71	26	0	0	1	1	26.4234102	138	1	1.06	0.94;
	79	1	39	32	0	20	1	1	26.7770187	138	1	1.06	0.94;
	80	2	130	26	0	0	1	1	29.370379	138	1	1.06	0.94;
	81	1	0	0	0	0	1	1	28.1192069	345	1	1.06	0.94;
	82	1	54	27	0	20	1	1	27.4002933	138	1	1.06	0.94;
	83	1	20	10	0	10	1	1	28.5593015	138	1	1.06	0.94;
	84	1	11	7	0	0	1	1	30.8503201	138	1	1.06	0.94;
	85	2	24	15	0	0	1	1	32.3668451	138	1	1.06	0.94;
	86	1	21	10	0	0	1	1	31.1663874	138	1	1.06	0.94;
	87	2	0	0	0	0	1	1	31.6376615	161	1	1.06	0.94;
	88	1	48	10	0	0	1	1	35.5054811	138	1	1.06	0.94;
	89	2	0	0	0	0	1	1	39.6545127	138	1	1.06	0.94;
	90	2	163	42	0	0	1	1	33.482086	138	1	1.06	0.94;
	91	2	10	0	0	0	1	1	33.3692315	138	1	1.06	0.94;
	92	2	65	10	0	0	1	1	33.9263221	138	1	1.06	0.94;
	93	1	12	7	0	0	1	1	30.9994555	138	1	1.06	0.94;
	94	1	30	16	0	0	1	1	28.9762482	138	1	1.06	0.94;
	95	1	42	31	0	0	1	1	27.8599207	138	1	1.06	0.94;
	96	1	38	15	0	0	1	1	27.7692497	138	1	1.06	0.94;
	97	1	15	9	0	0	1	1	28.1577036	138	1	1.06	0.94;
	98	1	34	8	0	0	1	1	27.8625368	138	1	1.06	0.94;
	99	2	42	0	0	0	1	1	27.5947841	138	1	1.06	0.94;
	100	2	37	18	0	0	1	1	28.8504492	138	1	1.06	0.94;
	101	1	22	15	0	0	1	1	30.0516619	138	1	1.06	0.94;
	102	1	5	3	0	0	1	1	32.5294825	138	1	1.06	0.94;
	103	2	23	16	0	0	1	1	25.4118827	138	1	1.06	0.94;
	104	2	38	25	0	0	1	1	22.5214125	138	1	1.06	0.94;
	105	2	31	26	0	20	1	1	21.4819046	138	1	1.06	0.94;
	106	1	43	16	0	0	1	1	21.2146105	138	1	1.06	0.94;
	107	2	50	12	0	6	1	1	18.7269756	138	1	1.06	0.94;
	108	1	2	1	0	0	1	1	20.498956	138	1	1.06	0.94;
	109	1	8	3	0	0	1	1	20.1292711	138	1	1.06	0.94;
	110	2	39	30	0	6	1	1	19.5004214	138	1	1.06	0.94;
	111	2	0	0	0	0	1	1	21.0442377	138	1	1.06	0.94;
	112	2	68	13	0	0	1	1	17.006909	138	1	1.06	0.94;
	113	2	6	0	0	0	1	1	10.8549248	138	1	1.06	0.94;
	114	1	8	3	0	0	1	1	10.504268	138	1	1.06	0.94;
	115	1	22	7	0	0	1	1	10.4738993	138	1	1.06	0.94;
	116	2	184	0	0	0	1	1	26.96168	138	1	1.06	0.94;
	117	1	20	8	0	0	1	1	7.95622907	138	1	1.06	0.94;
	118	1	33	15	0	0	1	1	21.477126	138	1	1.06	0.94;
];

%% generator data
%	bus	Pg	Qg	Qmax	Qmin	Vg	mBase	status	Pmax	Pmin	Pc1	Pc2	Qc1min	Qc1max	Qc2min	Qc2max	ramp_agc	ramp_10	ramp_30	ramp_q	apf
mpc.gen = [
	1	1.73e-08	0	15	-5	0.955	100	1	100	0	0	0	0	0	0	0	0	0	0	0	0;
	4	1.78e-08	0	300	-300	0.998	100	1	100	0	0	0	0	0	0	0	0	0	0	0	0;
	6	1.74e-08	0	50	-13	0.99	100	1	100	0	0	0	0	0	0	0	0	0	0	0	0;
	8	1.19e-08	0	300	-300	1.015	100	1	100	0	0	0	0	0	0	0	0	0	0	0	0;
	10	438.519729	0	200	-147	1.05	100	1	550	0	0	0	0	0	0	0	0	0	0	0	0;
	12	82.803086	0	120	-35	0.99	100	1	185	0	0	0	0	0	0	0	0	0	0	0	0;
	15	1.5e-08	0	30	-10	0.97	100	1	100	0	0	0	0	0	0	0	0	0	0	0	0;
	18	1.79e-08	0	50	-16	0.973	100	1	100	0	0	0	0	0	0	0	0	0	0	0	0;
	19	2.32e-08	0	24	-8	0.962	100	1	100	0	0	0	0	0	0	0	0	0	0	0	0;
	24	24.3242453	0	300	-300	0.992	100	1	100	0	0	0	0	0	0	0	0	0	0	0	0;
	25	167.713728	0	140	-47	1.05	100	1	320	0	0	0	0	0	0	0	0	0	0	0	0;
	26	239.373217	0	1000	-1000	1.015	100	1	414	0	0	0	0	0	0	0	0	0	0	0	0;
	27	1.55e-08	0	300	-300	0.968	100	1	100	0	0	0	0	0	0	0	0	0	0	0	0;
	31	6.64039914	0	300	-300	0.967	100	1	107	0	0	0	0	0	0	0	0	0	0	0	0;
	32	1.92e-08	0	42	-14	0.963	100	1	100	0	0	0	0	0	0	0	0	0	0	0	0;
	34	1.61e-08	0	24	-8	0.984	100	1	100	0	0	0	0	0	0	0	0	0	0	0	0;
	36	1.6e-08	0	24	-8	0.98	100	1	100	0	0	0	0	0	0	0	0	0	0	0	0;
	40	1.81e-08	0	300	-300	0.97	100	1	100	0	0	0	0	0	0	0	0	0	0	0	0;
	42	2.09e-08	0	300	-300	0.985	100	1	100	0	0	0	0	0	0	0	0	0	0	0	0;
	46	18.7583583	0	100	-100	1.005	100	1	119	0	0	0	0	0	0	0	0	0	0	0	0;
	49	201.452419	0	210	-85	1.025	100	1	304	0	0	0	0	0	0	0	0	0	0	0	0;
	54	47.4082821	0	300	-300	0.955	100	1	148	0	0	0	0	0	0	0	0	0	0	0	0;
	55	1.41e-08	0	23	-8	0.952	100	1	100	0	0	0	0	0	0	0	0	0	0	0	0;
	56	1.45e-08	0	15	-8	0.954	100	1	100	0	0	0	0	0	0	0	0	0	0	0	0;
	59	153.111079	0	180	-60	0.985	100	1	255	0	0	0	0	0	0	0	0	0	0	0	0;
	61	158.059461	0	300	-100	0.995	100	1	260	0	0	0	0	0	0	0	0	0	0	0	0;
	62	1.22e-08	0	20	-20	0.998	100	1	100	0	0	0	0	0	0	0	0	0	0	0	0;
	65	386.305564	0	200	-67	1.005	100	1	491	0	0	0	0	0	0	0	0	0	0	0	0;
	66	387.21482	0	200	-67	1.05	100	1	492	0	0	0	0	0	0	0	0	0	0	0	0;
	69	512.173247	0	300	-300	1.035	100	1	805.2	0	0	0	0	0	0	0	0	0	0	0	0;
	70	0.0361610283	0	32	-10	0.984	100	1	100	0	0	0	0	0	0	0	0	0	0	0	0;
	72	12.5879486	0	100	-100	0.98	100	1	100	0	0	0	0	0	0	0	0	0	0	0	0;
	73	1.80717264	0	100	-100	0.991	100	1	100	0	0	0	0	0	0	0	0	0	0	0	0;
	74	3.69e-08	0	9	-6	0.958	100	1	100	0	0	0	0	0	0	0	0	0	0	0	0;
	76	1.52e-08	0	23	-8	0.943	100	1	100	0	0	0	0	0	0	0	0	0	0	0	0;
	77	4.12e-08	0	70	-20	1.006	100	1	100	0	0	0	0	0	0	0	0	0	0	0	0;
	80	472.793591	0	280	-165	1.04	100	1	577	0	0	0	0	0	0	0	0	0	0	0	0;
	85	2.57e-08	0	23	-8	0.985	100	1	100	0	0	0	0	0	0	0	0	0	0	0	0;
	87	3.96590346	0	1000	-100	1.015	100	1	104	0	0	0	0	0	0	0	0	0	0	0	0;
	89	601.791572	0	300	-210	1.005	100	1	707	0	0	0	0	0	0	0	0	0	0	0	0;
	90	1.51e-08	0	300	-300	0.985	100	1	100	0	0	0	0	0	0	0	0	0	0	0	0;
	91	1.42e-08	0	100	-100	0.98	100	1	100	0	0	0	0	0	0	0	0	0	0	0	0;
	92	1.28e-08	0	9	-3	0.99	100	1	100	0	0	0	0	0	0	0	0	0	0	0	0;
	99	1.1e-08	0	100	-100	1.01	100	1	100	0	0	0	0	0	0	0	0	0	0	0	0;
	100	249.818013	0	155	-50	1.017	100	1	352	0	0	0	0	0	0	0	0	0	0	0	0;
	103	39.6536867	0	40	-15	1.01	100	1	140	0	0	0	0	0	0	0	0	0	0	0	0;
	104	1.66e-08	0	23	-8	0.971	100	1	100	0	0	0	0	0	0	0	0	0	0	0	0;
	105	1.66e-08	0	23	-8	0.965	100	1	100	0	0	0	0	0	0	0	0	0	0	0	0;
	107	1.66e-08	0	200	-200	0.952	100	1	100	0	0	0	0	0	0	0	0	0	0	0	0;
	110	1.66e-08	0	23	-8	0.973	100	1	100	0	0	0	0	0	0	0	0	0	0	0	0;
	111	35.6883163	0	1000	-100	0.98	100	1	136	0	0	0	0	0	0	0	0	0	0	0	0;
	112	1.66e-08	0	1000	-100	0.975	100	1	100	0	0	0	0	0	0	0	0	0	0	0	0;
	113	1.42e-08	0	200	-100	0.993	100	1	100	0	0	0	0	0	0	0	0	0	0	0	0;
	116	1.46e-08	0	1000	-1000	1.005	100	1	100	0	0	0	0	0	0	0	0	0	0	0	0;
];

%% branch data
%	fbus	tbus	r	x	b	rateA	rateB	rateC	ratio	angle	status	angmin	angmax	Pf	Qf	Pt	Qt
mpc.branch = [
	1	2	0.0303	0.0999	0.0254	220	0	0	0	0	1	-360	360	-11.9940	0.0000	11.9940	0.0000;
	1	3	0.0129	0.0424	0.01082	220	0	0	0	0	1	-360	360	-39.0060	0.0000	39.0060	0.0000;
	4	5	0.00176	0.00798	0.0021	220	0	0	0	0	1	-360	360	-102.5482	0.0000	102.5482	0.0000;
	3	5	0.0241	0.108	0.0284	220	0	0	0	0	1	-360	360	-68.5362	0.0000	68.5362	0.0000;
	5	6	0.0119	0.054	0.01426	220	0	0	0	0	1	-360	360	86.2347	0.0000	-86.2347	0.0000;
	6	7	0.00459	0.0208	0.0055	220	0	0	0	0	1	-360	360	34.2347	0.0000	-34.2347	0.0000;
	8	9	0.00244	0.0305	1.162	700	0	0	0	0	1	-360	360	-438.5197	0.0000	438.5197	0.0000;
	8	5	0	0.0267	0	500	0	0	0.985	0	1	-360	360	333.4253	0.0000	-333.4253	0.0000;
	9	10	0.00258	0.0322	1.23	700	0	0	0	0	1	-360	360	-438.5197	0.0000	438.5197	0.0000;
	4	11	0.0209	0.0688	0.01748	220	0	0	0	0	1	-360	360	63.5482	0.0000	-63.5482	0.0000;
	5	11	0.0203	0.0682	0.01738	220	0	0	0	0	1	-360	360	76.1063	0.0000	-76.1063	0.0000;
	11	12	0.00595	0.0196	0.00502	220	0	0	0	0	1	-360	360	35.5245	0.0000	-35.5245	0.0000;
	2	12	0.0187	0.0616	0.01572	220	0	0	0	0	1	-360	360	-31.9940	0.0000	31.9940	0.0000;
	3	12	0.0484	0.16	0.0406	220	0	0	0	0	1	-360	360	-9.4698	0.0000	9.4698	0.0000;
	7	12	0.00862	0.034	0.00874	220	0	0	0	0	1	-360	360	15.2347	0.0000	-15.2347	0.0000;
	11	13	0.02225	0.0731	0.01876	220	0	0	0	0	1	-360	360	34.1300	0.0000	-34.1300	0.0000;
	12	14	0.0215	0.0707	0.01816	220	0	0	0	0	1	-360	360	17.1636	0.0000	-17.1636	0.0000;
	13	15	0.0744	0.2444	0.06268	220	0	0	0	0	1	-360	360	0.1300	0.0000	-0.1300	0.0000;
	14	15	0.0595	0.195	0.0502	220	0	0	0	0	1	-360	360	3.1636	0.0000	-3.1636	0.0000;
	12	16	0.0212	0.0834	0.0214	220	0	0	0	0	1	-360	360	7.9348	0.0000	-7.9348	0.0000;
	15	17	0.0132	0.0437	0.0444	220	0	0	0	0	1	-360	360	-97.0723	0.0000	97.0723	0.0000;
	16	17	0.0454	0.1801	0.0466	220	0	0	0	0	1	-360	360	-17.0652	0.0000	17.0652	0.0000;
	17	18	0.0123	0.0505	0.01298	220	0	0	0	0	1	-360	360	75.8156	0.0000	-75.8156	0.0000;
	18	19	0.01119	0.0493	0.01142	220	0	0	0	0	1	-360	360	15.8156	0.0000	-15.8156	0.0000;
	19	20	0.0252	0.117	0.0298	220	0	0	0	0	1	-360	360	-9.9445	0.0000	9.9445	0.0000;
	15	19	0.012	0.0394	0.0101	220	0	0	0	0	1	-360	360	9.2978	0.0000	-9.2978	0.0000;
	20	21	0.0183	0.0849	0.0216	220	0	0	0	0	1	-360	360	-27.9445	0.0000	27.9445	0.0000;
	21	22	0.0209	0.097	0.0246	220	0	0	0	0	1	-360	360	-41.9445	0.0000	41.9445	0.0000;
	22	23	0.0342	0.159	0.0404	220	0	0	0	0	1	-360	360	-51.9445	0.0000	51.9445	0.0000;
	23	24	0.0135	0.0492	0.0498	220	0	0	0	0	1	-360	360	-41.6664	0.0000	41.6664	0.0000;
	23	25	0.0156	0.08	0.0864	220	0	0	0	0	1	-360	360	-114.5758	0.0000	114.5758	0.0000;
	26	25	0	0.0382	0	500	0	0	0.96	0	1	-360	360	69.4782	0.0000	-69.4782	0.0000;
	25	27	0.0318	0.163	0.1764	220	0	0	0	0	1	-360	360	122.6162	0.0000	-122.6162	0.0000;
	27	28	0.01913	0.0855	0.0216	220	0	0	0	0	1	-360	360	29.4406	0.0000	-29.4406	0.0000;
	28	29	0.0237	0.0943	0.0238	220	0	0	0	0	1	-360	360	12.4406	0.0000	-12.4406	0.0000;
	30	17	0	0.0388	0	500	0	0	0.96	0	1	-360	360	224.3989	0.0000	-224.3989	0.0000;
	8	30	0.00431	0.0504	0.514	700	0	0	0	0	1	-360	360	77.0944	0.0000	-77.0944	0.0000;
	26	30	0.00799	0.086	0.908	700	0	0	0	0	1	-360	360	169.8950	0.0000	-169.8950	0.0000;
	17	31	0.0474	0.1563	0.0399	220	0	0	0	0	1	-360	360	18.3792	0.0000	-18.3792	0.0000;
	29	31	0.0108	0.0331	0.0083	220	0	0	0	0	1	-360	360	-11.5594	0.0000	11.5594	0.0000;
	23	32	0.0317	0.1153	0.1173	220	0	0	0	0	1	-360	360	97.2976	0.0000	-97.2976	0.0000;
	31	32	0.0298	0.0985	0.0251	220	0	0	0	0	1	-360	360	-29.5398	0.0000	29.5398	0.0000;
	27	32	0.0229	0.0755	0.01926	220	0	0	0	0	1	-360	360	5.2721	0.0000	-5.2721	0.0000;
	15	33	0.038	0.1244	0.03194	220	0	0	0	0	1	-360	360	1.0681	0.0000	-1.0681	0.0000;
	19	34	0.0752	0.247	0.0632	220	0	0	0	0	1	-360	360	-9.9421	0.0000	9.9421	0.0000;
	35	36	0.00224	0.0102	0.00268	220	0	0	0	0	1	-360	360	0.9551	0.0000	-0.9551	0.0000;
	35	37	0.011	0.0497	0.01318	220	0	0	0	0	1	-360	360	-33.9551	0.0000	33.9551	0.0000;
	33	37	0.0415	0.142	0.0366	220	0	0	0	0	1	-360	360	-21.9319	0.0000	21.9319	0.0000;
	34	36	0.00871	0.0268	0.00568	220	0	0	0	0	1	-360	360	30.0449	0.0000	-30.0449	0.0000;
	34	37	0.00256	0.0094	0.00984	220	0	0	0	0	1	-360	360	-94.9049	0.0000	94.9049	0.0000;
	38	37	0	0.0375	0	500	0	0	0.935	0	1	-360	360	239.5471	0.0000	-239.5471	0.0000;
	37	39	0.0321	0.106	0.027	220	0	0	0	0	1	-360	360	49.4600	0.0000	-49.4600	0.0000;
	37	40	0.0593	0.168	0.042	220	0	0	0	0	1	-360	360	39.2952	0.0000	-39.2952	0.0000;
	30	38	0.00464	0.054	0.422	700	0	0	0	0	1	-360	360	22.5905	0.0000	-22.5905	0.0000;
	39	40	0.0184	0.0605	0.01552	220	0	0	0	0	1	-360	360	22.4600	0.0000	-22.4600	0.0000;
	40	41	0.0145	0.0487	0.01222	220	0	0	0	0	1	-360	360	11.5031	0.0000	-11.5031	0.0000;
	40	42	0.0555	0.183	0.0466	220	0	0	0	0	1	-360	360	-15.7480	0.0000	15.7480	0.0000;
	41	42	0.041	0.135	0.0344	220	0	0	0	0	1	-360	360	-25.4969	0.0000	25.4969	0.0000;
	43	44	0.0608	0.2454	0.06068	220	0	0	0	0	1	-360	360	-22.0820	0.0000	22.0820	0.0000;
	34	43	0.0413	0.1681	0.04226	220	0	0	0	0	1	-360	360	-4.0820	0.0000	4.0820	0.0000;
	44	45	0.0224	0.0901	0.0224	220	0	0	0	0	1	-360	360	-38.0820	0.0000	38.0820	0.0000;
	45	46	0.04	0.1356	0.0332	220	0	0	0	0	1	-360	360	-38.3879	0.0000	38.3879	0.0000;
	46	47	0.038	0.127	0.0316	220	0	0	0	0	1	-360	360	-32.6578	0.0000	32.6578	0.0000;
	46	48	0.0601	0.189	0.0472	220	0	0	0	0	1	-360	360	-14.9717	0.0000	14.9717	0.0000;
	47	49	0.0191	0.0625	0.01604	220	0	0	0	0	1	-360	360	-7.1710	0.0000	7.1710	0.0000;
	42	49	0.03575	0.1615	0.172	440	0	0	0	0	1	-360	360	-137.2448	0.0000	137.2448	0.0000;
	45	49	0.0684	0.186	0.0444	220	0	0	0	0	1	-360	360	-52.6942	0.0000	52.6942	0.0000;
	48	49	0.0179	0.0505	0.01258	220	0	0	0	0	1	-360	360	-34.9717	0.0000	34.9717	0.0000;
	49	50	0.0267	0.0752	0.01874	220	0	0	0	0	1	-360	360	50.8288	0.0000	-50.8288	0.0000;
	49	51	0.0486	0.137	0.0342	220	0	0	0	0	1	-360	360	62.8560	0.0000	-62.8560	0.0000;
	51	52	0.0203	0.0588	0.01396	220	0	0	0	0	1	-360	360	27.9806	0.0000	-27.9806	0.0000;
	52	53	0.0405	0.1635	0.04058	220	0	0	0	0	1	-360	360	9.9806	0.0000	-9.9806	0.0000;
	53	54	0.0263	0.122	0.031	220	0	0	0	0	1	-360	360	-13.0194	0.0000	13.0194	0.0000;
	49	54	0.0365	0.1445	0.1468	440	0	0	0	0	1	-360	360	71.2803	0.0000	-71.2803	0.0000;
	54	55	0.0169	0.0707	0.0202	220	0	0	0	0	1	-360	360	6.7618	0.0000	-6.7618	0.0000;
	54	56	0.00275	0.00955	0.00732	220	0	0	0	0	1	-360	360	17.1793	0.0000	-17.1793	0.0000;
	55	56	0.00488	0.0151	0.00374	220	0	0	0	0	1	-360	360	-20.7946	0.0000	20.7946	0.0000;
	56	57	0.0343	0.0966	0.0242	220	0	0	0	0	1	-360	360	-21.8288	0.0000	21.8288	0.0000;
	50	57	0.0474	0.134	0.0332	220	0	0	0	0	1	-360	360	33.8288	0.0000	-33.8288	0.0000;
	56	58	0.0343	0.0966	0.0242	220	0	0	0	0	1	-360	360	-5.8753	0.0000	5.8753	0.0000;
	51	58	0.0255	0.0719	0.01788	220	0	0	0	0	1	-360	360	17.8753	0.0000	-17.8753	0.0000;
	54	59	0.0503	0.2293	0.0598	220	0	0	0	0	1	-360	360	-31.2719	0.0000	31.2719	0.0000;
	56	59	0.0406925676	0.122426531	0.1105	440	0	0	0	0	1	-360	360	-59.9112	0.0000	59.9112	0.0000;
	55	59	0.04739	0.2158	0.05646	220	0	0	0	0	1	-360	360	-35.4435	0.0000	35.4435	0.0000;
	59	60	0.0317	0.145	0.0376	220	0	0	0	0	1	-360	360	-43.8885	0.0000	43.8885	0.0000;
	59	61	0.0328	0.15	0.0388	220	0	0	0	0	1	-360	360	-52.5761	0.0000	52.5761	0.0000;
	60	61	0.00264	0.0135	0.01456	220	0	0	0	0	1	-360	360	-112.7842	0.0000	112.7842	0.0000;
	60	62	0.0123	0.0561	0.01468	220	0	0	0	0	1	-360	360	-9.1043	0.0000	9.1043	0.0000;
	61	62	0.00824	0.0376	0.0098	220	0	0	0	0	1	-360	360	26.9105	0.0000	-26.9105	0.0000;
	63	59	0	0.0386	0	500	0	0	0.96	0	1	-360	360	154.0510	0.0000	-154.0510	0.0000;
	63	64	0.00172	0.02	0.216	700	0	0	0	0	1	-360	360	-154.0510	0.0000	154.0510	0.0000;
	64	61	0	0.0268	0	500	0	0	0.985	0	1	-360	360	34.2114	0.0000	-34.2114	0.0000;
	38	65	0.00901	0.0986	1.046	700	0	0	0	0	1	-360	360	-216.9566	0.0000	216.9566	0.0000;
	64	65	0.00269	0.0302	0.38	700	0	0	0	0	1	-360	360	-188.2624	0.0000	188.2624	0.0000;
	49	66	0.009	0.04595	0.0496	440	0	0	0	0	1	-360	360	-252.9733	0.0000	252.9733	0.0000;
	62	66	0.0482	0.218	0.0578	220	0	0	0	0	1	-360	360	-36.1417	0.0000	36.1417	0.0000;
	62	67	0.0258	0.117	0.031	220	0	0	0	0	1	-360	360	-23.0521	0.0000	23.0521	0.0000;
	65	66	0	0.037	0	500	0	0	0.935	0	1	-360	360	-8.0477	0.0000	8.0477	0.0000;
	66	67	0.0224	0.1015	0.02682	220	0	0	0	0	1	-360	360	51.0521	0.0000	-51.0521	0.0000;
	65	68	0.00138	0.016	0.638	700	0	0	0	0	1	-360	360	-10.8656	0.0000	10.8656	0.0000;
	47	69	0.0844	0.2778	0.07092	220	0	0	0	0	1	-360	360	-59.4868	0.0000	59.4868	0.0000;
	49	69	0.0985	0.324	0.0828	220	0	0	0	0	1	-360	360	-49.6211	0.0000	49.6211	0.0000;
	68	69	0	0.037	0	500	0	0	0.935	0	1	-360	360	-131.7436	0.0000	131.7436	0.0000;
	69	70	0.03	0.127	0.122	220	0	0	0	0	1	-360	360	107.8944	0.0000	-107.8944	0.0000;
	24	70	0.00221	0.4115	0.10198	220	0	0	0	0	1	-360	360	-15.1980	0.0000	15.1980	0.0000;
	70	71	0.00882	0.0355	0.00878	220	0	0	0	0	1	-360	360	18.7491	0.0000	-18.7491	0.0000;
	24	72	0.0488	0.196	0.0488	220	0	0	0	0	1	-360	360	-15.1442	0.0000	15.1442	0.0000;
	71	72	0.0446	0.18	0.04444	220	0	0	0	0	1	-360	360	14.5562	0.0000	-14.5562	0.0000;
	71	73	0.00866	0.0454	0.01178	220	0	0	0	0	1	-360	360	4.1928	0.0000	-4.1928	0.0000;
	70	74	0.0401	0.1323	0.03368	220	0	0	0	0	1	-360	360	12.3813	0.0000	-12.3813	0.0000;
	70	75	0.0428	0.141	0.036	220	0	0	0	0	1	-360	360	-4.3977	0.0000	4.3977	0.0000;
	69	75	0.0405	0.122	0.124	220	0	0	0	0	1	-360	360	107.2337	0.0000	-107.2337	0.0000;
	74	75	0.0123	0.0406	0.01034	220	0	0	0	0	1	-360	360	-55.6187	0.0000	55.6187	0.0000;
	76	77	0.0444	0.148	0.0368	220	0	0	0	0	1	-360	360	-63.7295	0.0000	63.7295	0.0000;
	69	77	0.0309	0.101	0.1038	220	0	0	0	0	1	-360	360	56.1937	0.0000	-56.1937	0.0000;
	75	77	0.0601	0.1999	0.04978	220	0	0	0	0	1	-360	360	-37.0532	0.0000	37.0532	0.0000;
	77	78	0.00376	0.0124	0.01264	220	0	0	0	0	1	-360	360	45.7064	0.0000	-45.7064	0.0000;
	78	79	0.00546	0.0244	0.00648	220	0	0	0	0	1	-360	360	-25.2936	0.0000	25.2936	0.0000;
	77	80	0.0107715517	0.0331758958	0.07	440	0	0	0	0	1	-360	360	-137.9517	0.0000	137.9517	0.0000;
	79	80	0.0156	0.0704	0.0187	220	0	0	0	0	1	-360	360	-64.2936	0.0000	64.2936	0.0000;
	68	81	0.00175	0.0202	0.808	700	0	0	0	0	1	-360	360	-63.1221	0.0000	63.1221	0.0000;
	81	80	0	0.037	0	500	0	0	0.935	0	1	-360	360	-63.1221	0.0000	63.1221	0.0000;
	77	82	0.0298	0.0853	0.08174	220	0	0	0	0	1	-360	360	-13.3438	0.0000	13.3438	0.0000;
	82	83	0.0112	0.03665	0.03796	220	0	0	0	0	1	-360	360	-55.1938	0.0000	55.1938	0.0000;
	83	84	0.0625	0.132	0.0258	220	0	0	0	0	1	-360	360	-30.2923	0.0000	30.2923	0.0000;
	83	85	0.043	0.148	0.0348	220	0	0	0	0	1	-360	360	-44.9015	0.0000	44.9015	0.0000;
	84	85	0.0302	0.0641	0.01234	220	0	0	0	0	1	-360	360	-41.2923	0.0000	41.2923	0.0000;
	85	86	0.035	0.123	0.0276	220	0	0	0	0	1	-360	360	17.0341	0.0000	-17.0341	0.0000;
	86	87	0.02828	0.2074	0.0445	500	0	0	0	0	1	-360	360	-3.9659	0.0000	3.9659	0.0000;
	85	88	0.02	0.102	0.0276	220	0	0	0	0	1	-360	360	-53.7054	0.0000	53.7054	0.0000;
	85	89	0.0239	0.173	0.047	220	0	0	0	0	1	-360	360	-73.5224	0.0000	73.5224	0.0000;
	88	89	0.0139	0.0712	0.01934	220	0	0	0	0	1	-360	360	-101.7054	0.0000	101.7054	0.0000;
	89	90	0.0163074074	0.0651498088	0.1588	440	0	0	0	0	1	-360	360	165.3561	0.0000	-165.3561	0.0000;
	90	91	0.0254	0.0836	0.0214	220	0	0	0	0	1	-360	360	2.3561	0.0000	-2.3561	0.0000;
	89	92	0.00790792683	0.0382744487	0.0962	440	0	0	0	0	1	-360	360	261.2076	0.0000	-261.2076	0.0000;
	91	92	0.0387	0.1272	0.03268	220	0	0	0	0	1	-360	360	-7.6439	0.0000	7.6439	0.0000;
	92	93	0.0258	0.0848	0.0218	220	0	0	0	0	1	-360	360	60.2399	0.0000	-60.2399	0.0000;
	92	94	0.0481	0.158	0.0406	220	0	0	0	0	1	-360	360	54.6804	0.0000	-54.6804	0.0000;
	93	94	0.0223	0.0732	0.01876	220	0	0	0	0	1	-360	360	48.2399	0.0000	-48.2399	0.0000;
	94	95	0.0132	0.0434	0.0111	220	0	0	0	0	1	-360	360	44.8931	0.0000	-44.8931	0.0000;
	80	96	0.0356	0.182	0.0494	220	0	0	0	0	1	-360	360	15.3544	0.0000	-15.3544	0.0000;
	82	96	0.0162	0.053	0.0544	220	0	0	0	0	1	-360	360	-12.1500	0.0000	12.1500	0.0000;
	94	96	0.0269	0.0869	0.023	220	0	0	0	0	1	-360	360	24.2418	0.0000	-24.2418	0.0000;
	80	97	0.0183	0.0934	0.0254	220	0	0	0	0	1	-360	360	22.6608	0.0000	-22.6608	0.0000;
	80	98	0.0238	0.108	0.0286	220	0	0	0	0	1	-360	360	24.3674	0.0000	-24.3674	0.0000;
	80	99	0.0454	0.206	0.0546	220	0	0	0	0	1	-360	360	15.0437	0.0000	-15.0437	0.0000;
	92	100	0.0648	0.295	0.0472	220	0	0	0	0	1	-360	360	30.0307	0.0000	-30.0307	0.0000;
	94	100	0.0178	0.058	0.0604	220	0	0	0	0	1	-360	360	3.7855	0.0000	-3.7855	0.0000;
	95	96	0.0171	0.0547	0.01474	220	0	0	0	0	1	-360	360	2.8931	0.0000	-2.8931	0.0000;
	96	97	0.0173	0.0885	0.024	220	0	0	0	0	1	-360	360	-7.6608	0.0000	7.6608	0.0000;
	98	100	0.0397	0.179	0.0476	220	0	0	0	0	1	-360	360	-9.6326	0.0000	9.6326	0.0000;
	99	100	0.018	0.0813	0.0216	220	0	0	0	0	1	-360	360	-26.9563	0.0000	26.9563	0.0000;
	100	101	0.0277	0.1262	0.0328	220	0	0	0	0	1	-360	360	-16.6126	0.0000	16.6126	0.0000;
	92	102	0.0123	0.0559	0.01464	220	0	0	0	0	1	-360	360	43.6126	0.0000	-43.6126	0.0000;
	101	102	0.0246	0.112	0.0294	220	0	0	0	0	1	-360	360	-38.6126	0.0000	38.6126	0.0000;
	100	103	0.016	0.0525	0.0536	220	0	0	0	0	1	-360	360	114.3130	0.0000	-114.3130	0.0000;
	100	104	0.0451	0.204	0.0541	220	0	0	0	0	1	-360	360	54.1483	0.0000	-54.1483	0.0000;
	103	104	0.0466	0.1584	0.0407	220	0	0	0	0	1	-360	360	31.8486	0.0000	-31.8486	0.0000;
	103	105	0.0535	0.1625	0.0408	220	0	0	0	0	1	-360	360	42.2099	0.0000	-42.2099	0.0000;
	100	106	0.0605	0.229	0.062	220	0	0	0	0	1	-360	360	58.1967	0.0000	-58.1967	0.0000;
	104	105	0.00994	0.0378	0.00986	220	0	0	0	0	1	-360	360	47.9969	0.0000	-47.9969	0.0000;
	105	106	0.014	0.0547	0.01434	220	0	0	0	0	1	-360	360	8.5286	0.0000	-8.5286	0.0000;
	105	107	0.053	0.183	0.0472	220	0	0	0	0	1	-360	360	26.2746	0.0000	-26.2746	0.0000;
	105	108	0.0261	0.0703	0.01844	220	0	0	0	0	1	-360	360	24.4035	0.0000	-24.4035	0.0000;
	106	107	0.053	0.183	0.0472	220	0	0	0	0	1	-360	360	23.7254	0.0000	-23.7254	0.0000;
	108	109	0.0105	0.0288	0.0076	220	0	0	0	0	1	-360	360	22.4035	0.0000	-22.4035	0.0000;
	103	110	0.03906	0.1813	0.0461	220	0	0	0	0	1	-360	360	56.9081	0.0000	-56.9081	0.0000;
	109	110	0.0278	0.0762	0.0202	220	0	0	0	0	1	-360	360	14.4035	0.0000	-14.4035	0.0000;
	110	111	0.022	0.0755	0.02	220	0	0	0	0	1	-360	360	-35.6883	0.0000	35.6883	0.0000;
	110	112	0.0247	0.064	0.062	220	0	0	0	0	1	-360	360	68.0000	0.0000	-68.0000	0.0000;
	17	113	0.00913	0.0301	0.00768	220	0	0	0	0	1	-360	360	5.0665	0.0000	-5.0665	0.0000;
	32	113	0.0615	0.203	0.0518	220	0	0	0	0	1	-360	360	0.9335	0.0000	-0.9335	0.0000;
	32	114	0.0135	0.0612	0.01628	220	0	0	0	0	1	-360	360	13.0965	0.0000	-13.0965	0.0000;
	27	115	0.0164	0.0741	0.01972	220	0	0	0	0	1	-360	360	16.9035	0.0000	-16.9035	0.0000;
	114	115	0.0023	0.0104	0.00276	220	0	0	0	0	1	-360	360	5.0965	0.0000	-5.0965	0.0000;
	68	116	0.00034	0.00405	0.164	500	0	0	0	0	1	-360	360	184.0000	0.0000	-184.0000	0.0000;
	12	117	0.0329	0.14	0.0358	220	0	0	0	0	1	-360	360	20.0000	0.0000	-20.0000	0.0000;
	75	118	0.0145	0.0481	0.01198	220	0	0	0	0	1	-360	360	37.2705	0.0000	-37.2705	0.0000;
	76	118	0.0164	0.0544	0.01356	220	0	0	0	0	1	-360	360	-4.2705	0.0000	4.2705	0.0000;
];

%%-----  OPF Data  -----%%
%% generator cost data
%	1	startup	shutdown	n	x1	y1	...	xn	yn
%	2	startup	shutdown	n	c(n-1)	...	c0
mpc.gencost = [
	2	0	0	3	0.01	40	0;
	2	0	0	3	0.01	40	0;
	2	0	0	3	0.01	40	0;
	2	0	0	3	0.01	40	0;
	2	0	0	3	0.0222222222	20	0;
	2	0	0	3	0.117647059	20	0;
	2	0	0	3	0.01	40	0;
	2	0	0	3	0.01	40	0;
	2	0	0	3	0.01	40	0;
	2	0	0	3	0.01	40	0;
	2	0	0	3	0.0454545455	20	0;
	2	0	0	3	0.0318471338	20	0;
	2	0	0	3	0.01	40	0;
	2	0	0	3	1.42857143	20	0;
	2	0	0	3	0.01	40	0;
	2	0	0	3	0.01	40	0;
	2	0	0	3	0.01	40	0;
	2	0	0	3	0.01	40	0;
	2	0	0	3	0.01	40	0;
	2	0	0	3	0.526315789	20	0;
	2	0	0	3	0.0490196078	20	0;
	2	0	0	3	0.208333333	20	0;
	2	0	0	3	0.01	40	0;
	2	0	0	3	0.01	40	0;
	2	0	0	3	0.064516129	20	0;
	2	0	0	3	0.0625	20	0;
	2	0	0	3	0.01	40	0;
	2	0	0	3	0.0255754476	20	0;
	2	0	0	3	0.0255102041	20	0;
	2	0	0	3	0.0193648335	20	0;
	2	0	0	3	0.01	40	0;
	2	0	0	3	0.01	40	0;
	2	0	0	3	0.01	40	0;
	2	0	0	3	0.01	40	0;
	2	0	0	3	0.01	40	0;
	2	0	0	3	0.01	40	0;
	2	0	0	3	0.0209643606	20	0;
	2	0	0	3	0.01	40	0;
	2	0	0	3	2.5	20	0;
	2	0	0	3	0.0164744646	20	0;
	2	0	0	3	0.01	40	0;
	2	0	0	3	0.01	40	0;
	2	0	0	3	0.01	40	0;
	2	0	0	3	0.01	40	0;
	2	0	0	3	0.0396825397	20	0;
	2	0	0	3	0.25	20	0;
	2	0	0	3	0.01	40	0;
	2	0	0	3	0.01	40	0;
	2	0	0	3	0.01	40	0;
	2	0	0	3	0.01	40	0;
	2	0	0	3	0.277777778	20	0;
	2	0	0	3	0.01	40	0;
	2	0	0	3	0.01	40	0;
	2	0	0	3	0.01	40	0;
];

%% bus names
mpc.bus_name = {
	'Riversde  V2';
	'Pokagon   V2';
	'HickryCk  V2';
	'NwCarlsl  V2';
	'Olive     V2';
	'Kankakee  V2';
	'JacksnRd  V2';
	'Olive     V1';
	'Bequine   V1';
	'Breed     V1';
	'SouthBnd  V2';
	'TwinBrch  V2';
	'Concord   V2';
	'GoshenJt  V2';
	'FtWayne   V2';
	'N. E.     V2';
	'Sorenson  V2';
	'McKinley  V2';
	'Lincoln   V2';
	'Adams     V2';
	'Jay       V2';
	'Randolph  V2';
	'CollCrnr  V2';
	'Trenton   V2';
	'TannrsCk  V2';
	'TannrsCk  V1';
	'Madison   V2';
	'Mullin    V2';
	'Grant     V2';
	'Sorenson  V1';
	'DeerCrk   V2';
	'Delaware  V2';
	'Haviland  V2';
	'Rockhill  V2';
	'WestLima  V2';
	'Sterling  V2';
	'EastLima  V2';
	'EastLima  V1';
	'NwLibrty  V2';
	'West End  V2';
	'S.Tiffin  V2';
	'Howard    V2';
	'S.Kenton  V2';
	'WMVernon  V2';
	'N.Newark  V2';
	'W.Lancst  V2';
	'Crooksvl  V2';
	'Zanesvll  V2';
	'Philo     V2';
	'WCambrdg  V2';
	'Newcmrst  V2';
	'SCoshoct  V2';
	'Wooster   V2';
	'Torrey    V2';
	'Wagenhls  V2';
	'Sunnysde  V2';
	'WNwPhil1  V2';
	'WNwPhil2  V2';
	'Tidd      V2';
	'SWKammer  V2';
	'W.Kammer  V2';
	'Natrium   V2';
	'Tidd      V1';
	'Kammer    V1';
	'Muskngum  V1';
	'Muskngum  V2';
	'Summerfl  V2';
	'Sporn     V1';
	'Sporn     V2';
	'Portsmth  V2';
	'NPortsmt  V2';
	'Hillsbro  V2';
	'Sargents  V2';
	'Bellefnt  V2';
	'SthPoint  V2';
	'Darrah    V2';
	'Turner    V2';
	'Chemical  V2';
	'CapitlHl  V2';
	'CabinCrk  V2';
	'Kanawha   V1';
	'Logan     V2';
	'Sprigg    V2';
	'BetsyLne  V2';
	'BeaverCk  V2';
	'Hazard    V2';
	'Pinevlle  V3';
	'Fremont   V2';
	'ClinchRv  V2';
	'Holston   V2';
	'HolstonT  V2';
	'Saltvlle  V2';
	'Tazewell  V2';
	'Switchbk  V2';
	'Caldwell  V2';
	'Baileysv  V2';
	'Sundial   V2';
	'Bradley   V2';
	'Hinton    V2';
	'Glen Lyn  V2';
	'Wythe     V2';
	'Smythe    V2';
	'Claytor   V2';
	'Hancock   V2';
	'Roanoke   V2';
	'Cloverdl  V2';
	'Reusens   V2';
	'Blaine    V2';
	'Franklin  V2';
	'Fieldale  V2';
	'DanRiver  V2';
	'Danville  V2';
	'Deer Crk  V2';
	'WMedford  V2';
	'Medford   V2';
	'KygerCrk  V2';
	'Corey     V2';
	'WHuntngd  V2';
};
